data/planning/PaCES/line.csv
id,node_code_st,node_code_en,voltage,length_km,reactance,ttc_mw
1,SS_256,SS_33,230,81.3,0.04441,558
2,SS_373,VS_857,230,432.5,0.23629,1115
3,SS_239,SS_156,230,21.6,0.01181,558
4,VS_858,VS_859,230,80,0.0437,558
5,VS_858,VS_859,230,80,0.04371,558
6,SS_35,SS_61,230,14.3,0.00781,558
7,VS_860,SS_257,230,5.8,0.00316,558
8,SS_78,SS_83,230,25.3,0.01381,558
9,SS_89,SS_61,230,6,0.00326,558
10,SS_21,SS_45,315,6.3,0.00128,928
11,SS_22,SS_585,360,120.6,0.02689,873
12,SS_22,SS_23,360,15.6,0.00349,873
13,SS_28,SS_196,500,406.3,0.02048,2078
14,SS_28,SS_26,500,75.8,0.00382,1039
15,SS_24,SS_26,230,36.5,0.01994,558
16,SS_49,SS_239,230,33.2,0.01815,558
17,SS_239,VS_861,230,14,0.00764,558
18,SS_27,SS_573,230,14.1,0.00772,558
19,SS_28,VS_862,500,55.1,0.00278,1039
20,SS_30,VS_863,230,1.2,0.00064,558
21,SS_28,SS_37,500,29.9,0.00151,1039
22,SS_49,SS_239,230,33.3,0.01822,558
23,SS_35,SS_61,230,14.3,0.00781,558
24,SS_79,SS_78,230,8.9,0.00489,558
25,SS_78,SS_79,230,8.9,0.00488,558
26,SS_210,SS_126,500,96.1,0.00484,1039
27,SS_41,VS_864,315,35.3,0.00711,928
28,SS_78,VS_860,230,36.7,0.02007,558
29,SS_78,VS_860,230,36.5,0.01995,558
30,SS_16,SS_377,500,77.6,0.00391,1039
31,VS_865,VS_866,230,22.7,0.01241,558
32,VS_867,VS_868,230,3.1,0.00169,558
33,SS_39,VS_869,315,3.1,0.00062,928
34,SS_49,VS_870,230,14.1,0.00771,558
35,SS_291,SS_854,500,15.8,0.00079,1039
36,VS_871,SS_210,230,14.5,0.00792,558
37,SS_854,SS_291,500,15.8,0.0008,1039
38,SS_854,SS_291,500,15.8,0.0008,1039
39,SS_291,SS_854,500,15.8,0.0008,1039
40,SS_85,SS_853,230,13.9,0.00759,558
41,SS_52,VS_872,500,1,5.00E-05,1039
42,SS_92,SS_291,230,3.9,0.00215,558
43,SS_49,VS_873,230,17.5,0.00955,558
44,SS_49,SS_78,230,29.8,0.01627,558
45,VS_869,SS_21,315,2.1,0.00041,928
46,SS_57,SS_45,735,34.6,0.00064,1910
47,SS_156,SS_265,230,22.6,0.01232,558
48,VS_874,SS_34,230,2.1,0.00114,558
49,SS_854,SS_210,500,6.7,0.00034,1039
50,SS_210,SS_854,230,7,0.00383,558
51,SS_210,SS_78,230,12.9,0.00705,558
52,VS_877,SS_253,230,17.6,0.00964,558
53,SS_37,SS_196,500,382.9,0.0193,1039
54,SS_72,VS_878,230,2.2,0.00119,558
55,SS_523,VS_878,230,64.8,0.03539,558
56,SS_214,SS_73,230,107.8,0.05891,558
57,SS_73,SS_237,230,6.4,0.00351,558
58,VS_879,SS_52,500,0.8,4.00E-05,1039
59,VS_879,SS_52,500,0.8,4.00E-05,1039
60,VS_879,SS_52,500,0.8,4.00E-05,1039
61,VS_879,SS_52,500,0.8,4.00E-05,1039
62,VS_879,SS_52,500,0.8,4.00E-05,1039
63,VS_879,SS_52,500,0.8,4.00E-05,1039
64,VS_879,SS_52,500,0.8,4.00E-05,1039
65,VS_879,SS_52,500,0.8,4.00E-05,1039
66,SS_95,SS_475,735,432.7,0.00801,3819
67,SS_487,SS_95,735,25.6,0.00047,1910
68,SS_475,SS_367,735,51.1,0.00095,1910
69,SS_474,SS_367,735,358.1,0.00663,1910
70,SS_312,SS_474,735,193.5,0.00358,1910
71,VS_880,SS_471,735,2.6,5.00E-05,1910
72,SS_471,SS_367,735,437.6,0.0081,3819
73,SS_487,SS_475,735,456.6,0.00845,3819
74,SS_475,SS_330,735,344.7,0.00638,1910
75,SS_95,SS_470,315,100,0.02015,928
76,SS_471,SS_487,735,261.5,0.00484,1910
77,SS_478,SS_472,315,94.2,0.01898,928
78,SS_472,SS_473,315,183,0.03689,928
79,VS_873,SS_291,230,11.4,0.00625,558
80,SS_312,SS_473,315,141.2,0.02846,928
81,SS_122,SS_97,230,36.6,0.02001,558
82,VS_881,SS_98,230,103.7,0.05664,558
83,SS_735,VS_882,230,10.2,0.00559,558
84,VS_881,SS_127,230,39.5,0.02157,558
85,SS_141,VS_883,230,24.9,0.01359,558
86,SS_13,SS_141,230,92.9,0.05076,558
87,SS_92,SS_59,230,7.7,0.00422,558
88,VS_884,SS_107,230,1.2,0.00063,558
89,SS_108,VS_884,230,3.2,0.00175,558
90,SS_106,SS_105,230,2.1,0.00113,558
91,VS_885,VS_886,230,3.4,0.00188,558
92,VS_885,VS_886,230,3.2,0.00174,558
93,VS_885,VS_886,230,3.4,0.00183,558
94,VS_885,VS_886,230,3.3,0.00178,558
95,SS_494,SS_666,230,126.8,0.06927,558
96,SS_121,SS_306,230,211.2,0.11539,558
97,VS_888,VS_889,230,374.5,0.20458,558
98,VS_890,SS_125,230,95.7,0.05228,558
99,SS_587,VS_891,230,1.1,0.00062,558
100,SS_126,SS_308,230,14.6,0.00799,558
101,SS_450,VS_892,230,283.2,0.1547,558
102,SS_44,SS_450,230,111.2,0.06075,558
103,SS_450,VS_893,230,107.2,0.05855,558
104,SS_91,VS_894,315,1.6,0.00032,928
105,SS_57,SS_781,735,22.2,0.00041,1910
106,SS_57,VS_895,230,5.2,0.00284,558
107,SS_57,SS_135,230,21.1,0.01154,558
108,SS_7,SS_57,735,74.6,0.00138,1910
109,SS_165,SS_45,735,190.4,0.00353,1910
110,VS_896,SS_443,230,5.1,0.00276,558
111,VS_896,SS_443,230,5,0.00274,558
112,VS_897,VS_858,230,3.8,0.00206,558
113,VS_897,SS_443,230,9.8,0.00534,558
114,VS_898,SS_128,230,4.6,0.00251,558
115,SS_852,SS_79,230,1.4,0.00076,558
116,SS_133,SS_737,735,8.2,0.00015,1910
117,SS_133,SS_155,735,382,0.00707,1910
118,VS_899,SS_133,315,21,0.00423,928
119,VS_900,SS_130,230,20.4,0.01113,558
120,SS_134,VS_901,315,5.9,0.00119,928
121,SS_3,VS_902,220,1.9,0.00112,533
122,VS_903,SS_43,230,3.5,0.00194,558
123,VS_903,SS_43,230,3.6,0.00194,558
124,SS_179,SS_665,230,283.6,0.15493,558
125,SS_744,SS_630,230,21.4,0.01169,558
126,SS_8,SS_264,500,495.7,0.02498,2078
127,VS_896,SS_443,230,5.1,0.00279,558
128,VS_896,SS_443,230,5.1,0.00281,558
129,SS_147,SS_299,230,45.3,0.02476,558
130,SS_149,SS_284,315,39.2,0.00789,928
131,SS_149,SS_150,315,32.9,0.00663,928
132,SS_311,SS_149,735,111.4,0.00206,1910
133,SS_682,SS_151,230,84.3,0.04608,558
134,SS_158,SS_151,315,144.5,0.02913,928
135,SS_151,VS_906,315,111,0.02237,928
136,SS_155,SS_305,735,177.4,0.00328,1910
137,SS_151,SS_489,230,78.8,0.04305,558
138,SS_151,VS_907,230,11.6,0.00635,558
139,SS_154,VS_908,230,1.4,0.00076,558
140,SS_154,SS_41,735,39.4,0.00073,1910
141,SS_731,SS_665,230,153.8,0.08403,558
142,SS_192,VS_909,735,26.3,0.00049,1910
143,SS_512,VS_910,230,1,0.00052,558
144,SS_67,VS_913,240,6.5,0.00281,624
145,SS_682,SS_151,230,84.2,0.04602,558
146,SS_688,SS_731,230,70.7,0.03863,558
147,SS_159,VS_914,230,1,0.00053,558
148,SS_163,SS_10,230,49,0.02678,558
149,SS_179,SS_688,230,232.5,0.12703,558
150,VS_915,VS_916,230,1.8,0.00096,558
151,SS_166,SS_348,230,12.2,0.00668,558
152,SS_166,VS_915,230,9.3,0.00508,558
153,SS_169,SS_769,230,21.5,0.01176,558
154,VS_917,SS_169,230,15.8,0.00866,558
155,SS_165,SS_57,735,155.1,0.00287,1910
156,SS_181,VS_918,735,219.9,0.00407,1910
157,VS_919,SS_154,230,11.5,0.0063,558
158,VS_920,SS_635,230,32.1,0.01751,558
159,VS_919,SS_154,230,11.8,0.00644,558
160,VS_921,SS_172,315,3.2,0.00064,928
161,SS_28,SS_30,230,25.5,0.01396,558
162,SS_413,SS_646,230,117.4,0.06415,558
163,VS_922,SS_174,230,79.4,0.04339,558
164,SS_476,SS_710,230,136.3,0.07448,558
165,SS_179,SS_476,230,110,0.06007,558
166,SS_41,VS_925,315,4.6,0.00092,928
167,VS_926,VS_925,315,3.2,0.00065,928
168,SS_183,SS_143,500,296.7,0.01495,1039
169,SS_181,SS_155,735,272.8,0.00505,1910
170,SS_183,SS_164,500,483.2,0.02436,2078
171,SS_183,SS_129,500,238.1,0.012,1039
172,SS_183,SS_129,500,238.3,0.01201,1039
173,SS_182,SS_183,500,25.1,0.00126,1039
174,SS_176,VS_927,230,8.9,0.00485,558
175,VS_928,SS_351,230,2.2,0.00121,558
176,VS_931,VS_932,230,10.4,0.00569,558
177,VS_933,VS_934,230,9.3,0.00508,558
178,VS_935,SS_590,230,50.9,0.02782,558
179,SS_10,SS_190,230,35.4,0.01936,558
180,SS_377,SS_373,230,79.8,0.04359,558
181,SS_235,VS_936,345,136.8,0.03321,837
182,SS_120,VS_937,345,159.6,0.03875,837
183,SS_533,SS_531,240,85.7,0.03718,624
184,VS_936,SS_685,345,100,0.02428,837
185,SS_781,SS_192,735,20.3,0.00038,1910
186,VS_938,SS_192,735,84.6,0.00157,1910
187,SS_41,VS_939,735,177,0.00328,1910
188,SS_13,VS_940,230,59.8,0.03267,558
189,SS_13,SS_12,230,105,0.05735,558
190,SS_199,SS_7,230,25.4,0.01385,558
191,SS_193,VS_941,230,1.7,0.00095,558
192,SS_197,VS_942,230,1.1,0.00059,558
193,VS_942,SS_197,230,1.1,0.00062,558
194,SS_134,SS_154,735,563.4,0.01043,3819
195,SS_290,SS_714,230,143.7,0.07853,558
196,VS_937,SS_204,345,33.3,0.00808,837
197,VS_943,SS_290,230,102.4,0.05594,558
198,VS_944,VS_945,230,112.4,0.06142,558
199,SS_149,SS_221,735,133.5,0.00247,1910
200,SS_212,SS_221,315,6.5,0.00132,928
201,SS_215,VS_922,230,1,0.00055,558
202,SS_218,SS_216,230,9.3,0.00508,558
203,SS_221,SS_45,735,65.7,0.00122,1910
204,SS_146,SS_307,287,214.5,0.07526,696
205,SS_570,SS_231,230,46.2,0.02522,558
206,SS_227,SS_570,230,36.1,0.01975,558
207,VS_946,SS_227,230,4.4,0.0024,558
208,SS_642,SS_678,230,51.2,0.02797,558
209,SS_642,SS_231,230,0.9,0.00049,558
210,SS_227,SS_281,230,501.1,0.27378,1115
211,VS_947,SS_732,230,5,0.00272,558
212,VS_948,SS_576,230,65.4,0.03573,558
213,VS_949,SS_18,280,7,0.00257,679
214,SS_204,VS_937,345,33.4,0.0081,837
215,SS_120,VS_937,345,159.5,0.03873,837
216,SS_455,VS_950,240,25.9,0.01122,624
217,SS_265,SS_446,230,1.5,0.00081,558
218,SS_133,SS_737,735,7.9,0.00015,1910
219,SS_213,VS_952,230,6.7,0.00365,558
220,SS_651,SS_650,280,10.4,0.00383,679
221,VS_953,SS_659,280,36.3,0.01337,679
222,VS_949,SS_651,260,44.6,0.01908,630
223,SS_30,VS_949,280,8.7,0.00322,679
224,SS_15,SS_674,230,382.3,0.20887,558
225,SS_238,SS_74,230,5.4,0.00293,558
226,SS_366,SS_196,500,454.5,0.02291,2078
227,SS_265,VS_954,230,7.1,0.0039,558
228,SS_265,SS_446,230,1.5,0.00081,558
229,SS_241,VS_935,230,8.2,0.00447,558
230,VS_906,SS_241,315,81.3,0.01638,928
231,SS_241,VS_955,230,32.7,0.01788,558
232,VS_956,SS_244,230,4.9,0.0027,558
233,SS_242,VS_956,230,61.1,0.03337,558
234,SS_245,SS_137,230,78.2,0.0427,558
235,SS_137,SS_249,230,59,0.03224,558
236,VS_957,SS_187,230,22.2,0.01214,558
237,SS_187,SS_310,230,43,0.02349,558
238,VS_958,SS_187,230,25.7,0.01404,558
239,SS_685,SS_643,345,56.3,0.01366,837
240,SS_643,SS_773,138,83.8,0.14293,239
241,SS_812,SS_426,230,84.6,0.04624,558
242,SS_261,VS_959,230,6,0.00329,558
243,SS_33,SS_842,230,5.8,0.00315,558
244,VS_953,SS_650,280,5.5,0.00202,679
245,SS_258,VS_961,230,88,0.04808,558
246,SS_258,SS_294,500,72.5,0.00365,1039
247,VS_962,VS_963,230,13.2,0.00719,558
248,SS_649,VS_963,230,1.7,0.00093,558
249,SS_718,SS_264,230,201.9,0.1103,558
250,SS_13,SS_37,500,103,0.00519,1039
251,SS_279,SS_13,500,123.8,0.00624,1039
252,VS_964,SS_13,230,30.9,0.01685,558
253,VS_966,SS_362,230,5.6,0.00307,558
254,SS_261,VS_967,230,16.4,0.00893,558
255,SS_279,SS_280,230,94.8,0.05177,558
256,VS_968,SS_270,230,15.2,0.00829,558
257,SS_165,SS_3,450,153.2,0.02187,1091
258,SS_272,SS_165,450,106.7,0.01523,1091
259,VS_969,SS_61,230,10.8,0.00589,558
260,SS_35,VS_970,230,3.8,0.00206,558
261,SS_283,VS_972,315,5.2,0.00104,928
262,SS_627,SS_781,315,11.7,0.00235,928
263,SS_350,SS_133,315,17.7,0.00358,928
264,SS_196,SS_366,500,454.5,0.02291,2078
265,SS_196,SS_290,500,230.1,0.0116,1039
266,SS_196,SS_137,500,184.7,0.00931,1039
267,SS_196,SS_137,500,184.7,0.00931,1039
268,SS_173,SS_196,230,99.7,0.05447,558
269,SS_196,SS_287,500,215.1,0.01084,1039
270,VS_977,VS_897,230,18,0.00982,558
271,SS_671,VS_978,230,4.7,0.00255,558
272,VS_914,SS_159,230,1,0.00053,558
273,VS_979,VS_958,230,43.1,0.02354,558
274,SS_250,SS_137,500,132.6,0.00668,1039
275,SS_137,SS_250,500,132.5,0.00668,1039
276,SS_187,SS_251,230,33.6,0.01836,558
277,VS_980,SS_287,230,3.2,0.00175,558
278,SS_719,SS_287,230,16.2,0.00887,558
279,VS_901,SS_134,315,6.9,0.00139,928
280,SS_134,SS_131,315,22.7,0.00458,928
281,SS_134,SS_131,315,23.1,0.00466,928
282,SS_134,SS_154,735,567.7,0.01051,3819
283,SS_132,SS_134,315,65.2,0.01315,928
284,SS_290,SS_183,500,540.6,0.02725,2078
285,SS_183,SS_290,500,540.6,0.02725,2078
286,SS_290,SS_26,500,422,0.02127,2078
287,SS_290,SS_183,500,540.7,0.02725,2078
288,VS_871,SS_291,230,8.3,0.00452,558
289,SS_279,SS_294,500,30.5,0.00154,1039
290,SS_258,SS_279,500,102.8,0.00518,1039
291,SS_295,SS_27,230,42,0.02294,558
292,SS_26,SS_295,230,12.1,0.0066,558
293,SS_117,SS_134,735,260.3,0.00482,1910
294,VS_882,SS_298,230,21.3,0.01162,558
295,SS_298,SS_98,230,147.2,0.0804,558
296,SS_298,VS_881,230,43.5,0.02376,558
297,SS_290,SS_301,230,245.3,0.134,558
298,SS_301,SS_194,230,137.5,0.07515,558
299,SS_723,SS_194,230,8.9,0.00485,558
300,SS_194,SS_183,230,159.6,0.08721,558
301,VS_982,SS_181,315,3.3,0.00066,928
302,SS_31,SS_33,230,3.6,0.00198,558
303,SS_32,SS_28,230,8,0.00439,558
304,VS_984,VS_985,287,72.9,0.02558,696
305,SS_260,SS_258,230,0.5,0.0003,558
306,SS_102,SS_383,230,63.3,0.03461,558
307,VS_986,VS_897,230,18.5,0.01012,558
308,SS_325,SS_311,735,266,0.00492,1910
309,VS_987,SS_268,230,138.8,0.07581,558
310,SS_334,SS_314,500,32.5,0.00164,1039
311,SS_317,SS_318,138,14.1,0.02403,239
312,VS_988,SS_753,230,291.2,0.15909,558
313,VS_989,SS_776,138,33.3,0.05679,239
314,SS_483,SS_117,735,723.2,0.01339,5729
315,SS_483,SS_117,735,723.6,0.01339,5729
316,SS_214,VS_952,230,12,0.00657,558
317,SS_753,SS_806,230,293.4,0.16028,558
318,VS_988,SS_806,230,1.7,0.00092,558
319,VS_991,SS_184,230,93.7,0.05117,558
320,SS_329,SS_305,735,299.2,0.00554,1910
321,SS_312,SS_474,735,198.8,0.00368,1910
322,SS_312,SS_474,735,198.9,0.00368,1910
323,SS_312,VS_992,735,2.6,5.00E-05,1910
324,SS_312,VS_992,735,2.8,5.00E-05,1910
325,SS_312,VS_992,735,3,6.00E-05,1910
326,SS_164,SS_129,500,245.2,0.01236,1039
327,SS_262,SS_129,500,244.2,0.01231,1039
328,SS_164,SS_262,500,25,0.00126,1039
329,SS_329,SS_305,735,299.1,0.00554,1910
330,SS_367,SS_329,735,372.5,0.00689,1910
331,SS_475,SS_330,735,344.6,0.00638,1910
332,SS_245,SS_331,230,67.7,0.03696,558
333,VS_994,SS_341,138,11.2,0.01906,239
334,VS_995,VS_996,138,18.8,0.03202,239
335,SS_343,SS_344,138,19.5,0.03333,239
336,SS_347,VS_997,240,12.4,0.00536,624
337,SS_349,SS_545,240,57.1,0.02478,624
338,SS_580,SS_360,230,32.9,0.01798,558
339,SS_355,SS_821,230,45.1,0.02466,558
340,SS_354,SS_501,230,0.6,0.00035,558
341,SS_207,VS_998,230,4,0.00218,558
342,SS_207,VS_998,230,4.2,0.00229,558
343,SS_207,VS_998,230,4.2,0.00229,558
344,SS_362,SS_206,230,3.8,0.00208,558
345,SS_637,SS_403,240,19.3,0.00838,624
346,SS_279,SS_322,230,44.2,0.02414,558
347,SS_265,SS_446,230,1.7,0.00091,558
348,SS_265,SS_446,230,1.7,0.00092,558
349,SS_265,SS_446,230,1.7,0.0009,558
350,SS_352,VS_999,230,8.7,0.00478,558
351,VS_886,SS_446,230,8.9,0.00486,558
352,SS_265,SS_446,230,1.5,0.00081,558
353,SS_528,SS_220,240,4,0.00172,624
354,SS_801,SS_473,315,6,0.00122,928
355,SS_711,SS_464,230,336.4,0.18376,558
356,VS_903,SS_255,230,22,0.01199,558
357,SS_255,SS_681,230,11.3,0.00615,558
358,SS_421,SS_798,230,76.9,0.04203,558
359,SS_379,SS_266,500,309.3,0.01559,1039
360,SS_413,SS_709,230,114.9,0.0628,558
361,SS_413,VS_1000,230,8,0.0044,558
362,SS_377,SS_226,230,11.4,0.00621,558
363,SS_195,SS_385,230,15.3,0.00835,558
364,SS_388,SS_503,230,68.9,0.03762,558
365,SS_16,SS_752,230,102.5,0.05598,558
366,VS_1001,VS_1002,230,7.8,0.00425,558
367,SS_455,SS_528,240,16.5,0.00714,624
368,SS_325,SS_149,735,369,0.00683,1910
369,SS_330,SS_329,735,95.8,0.00177,1910
370,SS_95,SS_475,735,432.7,0.00801,3819
371,VS_921,SS_181,315,16.5,0.00333,928
372,SS_380,VS_961,230,17.9,0.00979,558
373,SS_256,SS_659,230,10.3,0.00561,558
374,SS_256,SS_33,230,81.5,0.04454,558
375,SS_399,SS_372,500,116.5,0.00587,1039
376,SS_399,SS_560,500,29.6,0.00149,1039
377,VS_1004,SS_401,240,10.5,0.00456,624
378,SS_431,VS_1004,240,209.6,0.09097,624
379,VS_1005,SS_401,240,43.9,0.01907,624
380,VS_1006,SS_248,240,2.4,0.00104,624
381,VS_1006,SS_420,240,145.9,0.06332,624
382,VS_1007,SS_403,240,37.6,0.0163,624
383,VS_1008,SS_783,240,104.9,0.04553,624
384,SS_403,SS_8,240,28.3,0.0123,624
385,SS_8,SS_434,240,177.5,0.07705,624
386,VS_1007,SS_530,240,13.1,0.00567,624
387,SS_211,VS_1009,240,36.3,0.01575,624
388,VS_1010,VS_1009,240,5.9,0.00256,624
389,SS_248,SS_405,240,48.1,0.02089,624
390,VS_1011,SS_405,240,40.6,0.01764,624
391,SS_405,VS_1012,240,1.6,0.00069,624
392,SS_406,VS_1013,240,142.6,0.06188,624
393,VS_1014,VS_1012,240,232.7,0.10099,624
394,SS_405,VS_1013,240,32.5,0.01409,624
395,SS_399,VS_1012,240,229.1,0.09943,624
396,VS_1015,SS_527,240,88.4,0.03838,624
397,SS_529,VS_1016,240,43.8,0.019,624
398,SS_559,VS_1016,240,198.6,0.08622,624
399,SS_268,SS_429,230,143.8,0.07854,558
400,SS_790,SS_412,230,72.8,0.03977,558
401,VS_1009,VS_1017,240,152,0.06598,624
402,VS_1018,VS_1019,230,1,0.00056,558
403,SS_415,VS_1018,230,1.2,0.00066,558
404,VS_1019,VS_1018,230,1,0.00056,558
405,SS_420,VS_1007,240,44.6,0.01935,624
406,SS_418,SS_427,230,147.6,0.08063,558
407,SS_418,VS_1020,230,44.2,0.02414,558
408,SS_361,SS_418,230,52.7,0.02881,558
409,SS_427,SS_418,230,147.7,0.08067,558
410,SS_418,SS_561,230,67.4,0.03681,558
411,SS_561,SS_797,230,1.1,0.0006,558
412,SS_686,SS_589,230,158.8,0.08674,558
413,SS_421,SS_589,230,159.6,0.08722,558
414,SS_421,SS_686,230,0.5,0.00028,558
415,SS_846,SS_224,230,96.9,0.05291,558
416,SS_422,SS_423,230,9.8,0.00533,558
417,SS_422,SS_224,230,66.5,0.03632,558
418,SS_224,SS_757,230,23.3,0.01275,558
419,SS_424,SS_429,230,114,0.06229,558
420,SS_424,SS_844,230,43.3,0.02364,558
421,VS_1021,SS_425,230,189.5,0.10353,558
422,SS_426,SS_856,230,128.3,0.07011,558
423,VS_1022,SS_375,230,81.7,0.04461,558
424,SS_208,VS_945,230,7.7,0.00421,558
425,VS_1022,VS_1023,230,2.1,0.00114,558
426,SS_431,SS_438,240,105.7,0.0459,624
427,SS_558,SS_431,240,2.7,0.00115,624
428,SS_558,SS_431,240,2.9,0.00125,624
429,SS_431,SS_438,240,102.8,0.04462,624
430,VS_1024,SS_433,240,7.8,0.0034,624
431,SS_405,SS_607,240,107.1,0.04647,624
432,VS_1011,VS_1017,240,5,0.00218,624
433,VS_1017,VS_1011,240,5.2,0.00226,624
434,VS_1019,VS_1025,230,30.9,0.01685,558
435,SS_435,SS_436,138,14.3,0.02435,239
436,SS_437,SS_436,240,6.1,0.00263,624
437,SS_126,SS_210,500,96.2,0.00485,1039
438,SS_383,SS_126,230,14.8,0.00808,558
439,VS_1026,SS_445,230,3.7,0.00205,558
440,SS_446,SS_48,500,91.4,0.0046,1039
441,SS_265,SS_446,230,1.5,0.00083,558
442,SS_214,SS_216,230,5.3,0.00289,558
443,SS_233,SS_214,230,7.7,0.00421,558
444,SS_214,SS_337,230,23,0.01255,558
445,SS_646,SS_790,230,190.7,0.10421,558
446,SS_437,SS_448,240,121,0.05252,624
447,SS_587,VS_888,230,2.5,0.00137,558
448,SS_587,VS_1029,230,166.4,0.09091,558
449,SS_451,VS_1031,230,4.9,0.00266,558
450,SS_452,SS_451,230,20.8,0.01138,558
451,SS_453,VS_1032,230,3.2,0.00175,558
452,SS_735,SS_297,230,11.2,0.0061,558
453,SS_308,SS_454,230,48.5,0.02649,558
454,SS_454,VS_948,230,35,0.01913,558
455,VS_882,SS_298,230,21.3,0.01162,558
456,SS_716,VS_1037,230,26.1,0.01426,558
457,SS_146,SS_145,287,101.5,0.03561,696
458,SS_145,VS_1038,287,4.2,0.00146,696
459,VS_946,SS_227,230,4.5,0.00245,558
460,VS_946,SS_227,230,4.5,0.00246,558
461,VS_946,SS_227,230,4.5,0.00248,558
462,VS_1039,SS_706,230,17.2,0.0094,558
463,SS_471,VS_880,735,2.8,5.00E-05,1910
464,SS_329,SS_305,735,305.6,0.00566,1910
465,SS_305,SS_181,735,368.8,0.00683,1910
466,SS_146,SS_584,500,245.9,0.01239,1039
467,SS_266,SS_388,500,239.8,0.01209,1039
468,VS_1041,SS_503,230,19.1,0.01046,558
469,VS_1042,SS_266,230,2.7,0.0015,558
470,SS_456,VS_1042,230,3.5,0.00191,558
471,SS_458,SS_459,230,64.4,0.03517,558
472,SS_712,SS_459,230,116.1,0.06342,558
473,SS_357,SS_461,230,157.7,0.08613,558
474,SS_339,SS_455,240,105.2,0.04568,624
475,VS_913,SS_462,240,9.3,0.00404,624
476,SS_67,VS_913,240,7,0.00304,624
477,SS_554,SS_463,230,3.8,0.00208,558
478,SS_554,SS_463,230,4.3,0.00233,558
479,SS_464,VS_1043,230,2.1,0.00114,558
480,VS_1043,VS_1044,230,2.7,0.0015,558
481,VS_1044,VS_1043,230,2.7,0.00149,558
482,SS_397,SS_395,230,38.8,0.02118,558
483,SS_393,SS_397,230,109.8,0.05998,558
484,SS_395,SS_393,230,71.9,0.03931,558
485,SS_376,SS_397,230,32.3,0.01765,558
486,SS_467,SS_384,230,8.6,0.00471,558
487,VS_1045,SS_382,230,76.4,0.04174,558
488,SS_125,SS_286,230,49.7,0.02718,558
489,SS_273,SS_272,450,7,0.001,1091
490,VS_1046,SS_117,315,110.8,0.02233,928
491,SS_475,SS_330,735,378.2,0.007,1910
492,SS_367,SS_329,735,396.6,0.00734,1910
493,SS_471,SS_474,735,173.8,0.00322,1910
494,VS_880,SS_471,735,3,6.00E-05,1910
495,SS_305,SS_181,735,369,0.00683,1910
496,VS_1047,SS_3,450,112.2,0.01602,1091
497,SS_477,SS_475,315,95.1,0.01917,928
498,SS_474,SS_367,735,358.2,0.00663,1910
499,SS_479,SS_477,315,168.1,0.03388,928
500,SS_483,SS_117,735,723.5,0.01339,5729
501,SS_491,SS_461,230,117.6,0.06427,558
502,SS_336,SS_335,230,50.2,0.02742,558
503,SS_15,SS_674,230,382.4,0.2089,558
504,SS_13,VS_883,230,88.6,0.0484,558
505,VS_1044,VS_1049,230,158.5,0.0866,558
506,SS_495,SS_506,240,15.1,0.00657,624
507,SS_500,SS_415,230,255.3,0.13949,558
508,SS_417,VS_1044,230,317.7,0.17358,558
509,SS_417,SS_440,230,234.6,0.12815,558
510,VS_1052,SS_504,240,30.8,0.01335,624
511,SS_508,VS_1052,240,13.2,0.00573,624
512,SS_504,SS_507,500,3.5,0.00018,1039
513,SS_508,SS_552,240,236.2,0.10253,624
514,SS_433,VS_1053,240,8.8,0.0038,624
515,SS_431,SS_606,240,14.7,0.0064,624
516,SS_606,VS_1054,240,2.2,0.00095,624
517,SS_509,SS_800,240,71.3,0.03096,624
518,SS_13,SS_290,500,309.2,0.01558,1039
519,SS_424,SS_267,230,73.7,0.04025,558
520,SS_516,SS_515,240,65.8,0.02855,624
521,SS_381,SS_519,230,4,0.00218,558
522,SS_521,VS_1055,230,3.4,0.00184,558
523,VS_916,SS_524,230,2.6,0.0014,558
524,VS_1014,VS_1056,240,6.2,0.00269,624
525,VS_1056,VS_1014,240,6.2,0.00269,624
526,SS_529,VS_1056,240,5.7,0.00246,624
527,SS_403,VS_1057,240,85.8,0.03725,624
528,VS_1057,VS_1008,240,2.4,0.00105,624
529,VS_1015,VS_1006,240,13.2,0.00573,624
530,VS_1006,SS_248,240,2.9,0.00126,624
531,VS_1057,VS_1008,240,2.5,0.00106,624
532,SS_611,VS_1059,240,45.4,0.01972,624
533,SS_515,SS_535,240,4.2,0.00184,624
534,SS_537,SS_538,240,5.2,0.00226,624
535,VS_1060,VS_1061,240,7.4,0.00321,624
536,VS_1062,SS_347,240,99.6,0.04321,624
537,SS_347,SS_539,240,8.9,0.00386,624
538,VS_1064,SS_536,240,6.8,0.00294,624
539,VS_1065,SS_515,240,25.5,0.01109,624
540,VS_1059,SS_515,240,27.2,0.01181,624
541,SS_442,VS_1061,240,15.8,0.00687,624
542,SS_442,VS_1061,240,15.9,0.00688,624
543,SS_514,SS_513,240,16.3,0.00709,624
544,SS_516,SS_537,240,15.6,0.00678,624
545,SS_531,SS_534,240,20.6,0.00893,624
546,SS_539,VS_1066,240,1.8,0.00079,624
547,SS_346,VS_1060,240,40.2,0.01746,624
548,SS_346,VS_1060,240,40.3,0.01748,624
549,SS_346,VS_997,240,1.9,0.00084,624
550,VS_997,SS_346,240,2,0.00086,624
551,SS_539,SS_531,240,3.8,0.00164,624
552,VS_1059,VS_1067,240,39,0.01694,624
553,SS_498,VS_1068,240,82.6,0.03586,624
554,SS_498,SS_497,240,135.1,0.05864,624
555,SS_497,SS_542,240,37.9,0.01644,624
556,SS_540,SS_618,240,35.1,0.01523,624
557,VS_1068,SS_543,240,104.2,0.04524,624
558,VS_1068,SS_541,240,18.7,0.00811,624
559,VS_1069,SS_544,240,78.4,0.03402,624
560,SS_349,SS_608,240,162.3,0.07046,624
561,SS_545,SS_14,240,69,0.02997,624
562,SS_14,SS_611,240,126.7,0.05498,624
563,SS_546,SS_547,240,291.5,0.12652,624
564,SS_545,SS_546,240,406,0.17621,1247
565,SS_547,SS_549,240,215,0.09333,624
566,SS_549,VS_1070,240,99.7,0.04327,624
567,SS_549,VS_1071,240,176.3,0.07651,624
568,VS_1071,SS_509,240,217.2,0.09427,624
569,VS_1070,SS_550,240,38.7,0.01678,624
570,SS_551,VS_1072,240,93.9,0.04078,624
571,SS_551,VS_1070,240,9.9,0.00428,624
572,VS_1070,SS_551,240,10.8,0.00467,624
573,SS_552,SS_553,240,118.5,0.05145,624
574,SS_557,SS_566,240,121.5,0.05274,624
575,SS_557,SS_555,240,85.6,0.03717,624
576,SS_555,VS_1005,240,133.2,0.0578,624
577,SS_556,SS_555,240,0.8,0.00036,624
578,VS_1075,VS_1004,240,95,0.04122,624
579,SS_527,SS_401,240,105.7,0.04588,624
580,SS_562,SS_492,230,15.3,0.00838,558
581,VS_985,VS_1080,287,26,0.00911,696
582,VS_1080,SS_6,287,25.3,0.00888,696
583,VS_1081,VS_1082,230,43.8,0.02395,558
584,VS_1083,SS_407,230,231.9,0.1267,558
585,SS_376,SS_398,230,100.3,0.05478,558
586,SS_570,SS_231,230,46.1,0.0252,558
587,VS_970,SS_35,230,3.8,0.00205,558
588,SS_12,SS_219,230,110,0.06008,558
589,SS_585,SS_219,360,226.8,0.05056,873
590,VS_940,SS_219,230,153.5,0.08387,558
591,SS_219,SS_290,230,120.9,0.06604,558
592,VS_1086,SS_316,230,9.5,0.00518,558
593,SS_578,SS_577,230,14.2,0.00773,558
594,SS_416,SS_598,230,72.4,0.03954,558
595,SS_37,SS_631,500,155.8,0.00785,1039
596,VS_984,VS_1089,287,9.2,0.00321,696
597,SS_589,SS_856,230,127.2,0.06948,558
598,SS_589,SS_856,230,127.3,0.06953,558
599,SS_590,SS_656,345,214.1,0.05198,837
600,VS_935,SS_590,230,50.8,0.02775,558
601,SS_640,SS_656,345,72.4,0.01758,837
602,SS_279,SS_13,500,124.1,0.00626,1039
603,SS_594,VS_1090,500,17.7,0.00089,1039
604,SS_595,SS_594,500,36.8,0.00186,1039
605,SS_174,SS_597,230,4.4,0.00239,558
606,SS_601,SS_242,230,15.3,0.00834,558
607,VS_915,SS_602,230,4.4,0.0024,558
608,SS_584,SS_143,500,223.8,0.01128,1039
609,SS_409,VS_1091,240,5.5,0.00237,624
610,SS_566,VS_1054,240,143.7,0.06238,624
611,SS_606,VS_1092,240,48.6,0.0211,624
612,SS_433,SS_438,240,63.8,0.02769,624
613,SS_603,VS_1092,240,4.8,0.00208,624
614,VS_1071,SS_608,240,2.5,0.00108,624
615,VS_1062,SS_613,240,3.6,0.00157,624
616,SS_609,SS_611,240,2.3,0.00101,624
617,SS_544,VS_1062,240,73.3,0.03184,624
618,SS_611,SS_610,240,5.8,0.00253,624
619,SS_610,SS_611,240,5.9,0.00254,624
620,SS_613,SS_614,240,147.7,0.0641,624
621,SS_614,SS_615,240,19.3,0.00837,624
622,SS_621,VS_1069,240,4.2,0.00182,624
623,SS_542,SS_620,240,4.9,0.00211,624
624,SS_624,SS_618,240,3.3,0.00142,624
625,SS_497,VS_1069,240,60.9,0.02644,624
626,SS_555,VS_1075,240,72,0.03124,624
627,SS_618,SS_542,240,6.9,0.00299,624
628,VS_1075,SS_622,240,36.7,0.01594,624
629,SS_619,SS_623,240,40.3,0.0175,624
630,VS_1093,SS_653,230,131.3,0.07175,558
631,SS_386,SS_338,315,54.8,0.01105,928
632,VS_1095,VS_1096,315,38.1,0.00768,928
633,SS_628,VS_906,315,45,0.00906,928
634,SS_466,SS_158,315,124.6,0.02511,928
635,SS_129,SS_724,230,159.7,0.08724,558
636,VS_1097,SS_378,230,1.7,0.00094,558
637,SS_631,SS_196,500,227.1,0.01145,1039
638,SS_137,SS_245,230,78.1,0.04265,558
639,SS_278,SS_258,230,230.4,0.12587,558
640,SS_17,SS_634,315,154.5,0.03114,928
641,SS_303,VS_1096,315,134.5,0.0271,928
642,SS_818,SS_638,315,1.4,0.00027,928
643,SS_322,SS_639,230,231.4,0.12639,558
644,SS_432,SS_433,240,1.2,0.00051,624
645,SS_466,VS_1098,345,9.7,0.00236,837
646,VS_1098,SS_640,345,36.6,0.00888,837
647,VS_1098,SS_640,345,36.5,0.00887,837
648,VS_883,SS_71,230,10.1,0.00554,558
649,VS_1025,SS_458,230,188.1,0.10278,558
650,VS_962,SS_209,230,0.6,0.00033,558
651,SS_649,SS_30,230,7,0.00383,558
652,VS_1102,SS_326,230,42.6,0.02326,558
653,SS_652,VS_1103,230,1.4,0.00077,558
654,SS_653,SS_301,230,167.5,0.09149,558
655,SS_152,SS_654,230,89.9,0.04909,558
656,SS_655,VS_1104,230,7.8,0.00427,558
657,SS_654,VS_1002,230,244.9,0.13378,558
658,SS_646,SS_413,230,125,0.06828,558
659,SS_656,SS_120,345,212.8,0.05167,837
660,SS_83,VS_868,230,30.1,0.01645,558
661,VS_860,VS_866,230,2.2,0.00122,558
662,VS_860,VS_868,230,19.1,0.01044,558
663,SS_854,SS_210,500,6.7,0.00034,1039
664,VS_872,SS_52,500,1,5.00E-05,1039
665,VS_1110,SS_264,500,220.6,0.01112,1039
666,SS_421,SS_423,230,211.4,0.11547,558
667,SS_660,SS_798,230,112.6,0.06149,558
668,SS_666,SS_111,230,140.9,0.077,558
669,SS_476,SS_15,230,298.2,0.16292,558
670,SS_669,SS_668,287,70.5,0.02473,696
671,SS_345,VS_1124,230,3.6,0.00199,558
672,SS_671,VS_1125,500,48.7,0.00245,1039
673,VS_1125,VS_1110,500,5.3,0.00026,1039
674,VS_1125,VS_1110,500,5.3,0.00027,1039
675,VS_1125,VS_1110,500,5.3,0.00026,1039
676,VS_893,SS_122,230,95.1,0.05198,558
677,SS_171,SS_482,230,2.6,0.00141,558
678,SS_482,SS_171,230,2.6,0.00141,558
679,SS_95,SS_487,735,26.2,0.00049,1910
680,VS_946,SS_227,230,4.4,0.00241,558
681,SS_227,SS_570,230,36.7,0.02004,558
682,SS_227,VS_946,230,4.4,0.00242,558
683,SS_227,VS_946,230,4.6,0.00253,558
684,SS_228,SS_642,230,62.6,0.03421,558
685,SS_192,SS_679,735,14.3,0.00026,1910
686,VS_1136,VS_958,230,10.3,0.00564,558
687,VS_955,SS_683,230,35.1,0.0192,558
688,SS_580,SS_687,230,16,0.00875,558
689,SS_648,SS_570,230,96.2,0.05256,558
690,SS_231,SS_648,230,49.2,0.02689,558
691,SS_231,SS_648,230,50,0.0273,558
692,SS_516,VS_1064,240,26.2,0.01137,624
693,VS_891,SS_645,230,389.1,0.21256,558
694,VS_1142,SS_632,230,10.4,0.0057,558
695,SS_14,SS_700,500,172.9,0.00871,1039
696,VS_1067,SS_700,240,63,0.02732,624
697,SS_57,VS_869,315,27.1,0.00546,928
698,VS_1144,VS_1097,230,6.1,0.00332,558
699,SS_140,SS_630,230,11,0.00601,558
700,SS_140,SS_630,230,11,0.006,558
701,VS_1145,SS_97,230,0.6,0.00035,558
702,VS_1146,SS_20,230,1.1,0.00063,558
703,SS_392,SS_645,230,1,0.00053,558
704,SS_171,SS_658,230,5.4,0.00298,558
705,SS_705,SS_706,230,10.7,0.00585,558
706,SS_381,VS_1147,230,67.9,0.0371,558
707,VS_1147,SS_670,230,2.5,0.00138,558
708,SS_146,SS_669,287,604.7,0.21216,2088
709,VS_1093,SS_714,230,139.2,0.07603,558
710,SS_464,SS_715,230,3.6,0.00195,558
711,VS_1049,VS_1148,230,3.1,0.00171,558
712,SS_829,VS_1148,230,50.8,0.02777,558
713,SS_184,SS_717,230,7.1,0.00389,558
714,SS_633,SS_718,230,177,0.09668,558
715,SS_287,VS_980,230,3.4,0.00184,558
716,VS_980,SS_720,230,39.6,0.02162,558
717,SS_219,SS_499,360,2.1,0.00046,873
718,SS_499,SS_219,360,1.9,0.00042,873
719,SS_12,VS_1149,230,110.2,0.0602,558
720,SS_209,SS_324,230,1.3,0.0007,558
721,SS_129,SS_725,230,674.8,0.36867,1673
722,SS_726,SS_729,230,53.5,0.02925,558
723,SS_727,SS_164,230,41,0.02241,558
724,SS_10,SS_728,230,37.1,0.02028,558
725,SS_729,VS_1150,230,24.5,0.01341,558
726,SS_700,VS_1065,240,46.9,0.02035,624
727,SS_700,VS_1065,240,49.5,0.02147,624
728,SS_498,SS_619,240,98.1,0.0426,624
729,SS_665,SS_709,230,284.9,0.15567,558
730,SS_733,SS_227,230,67.9,0.03709,558
731,SS_227,SS_733,230,67,0.03661,558
732,SS_227,SS_733,230,67.2,0.0367,558
733,SS_570,SS_227,230,36.5,0.01994,558
734,VS_1151,SS_690,230,1.7,0.00094,558
735,SS_690,VS_1151,230,1.5,0.00083,558
736,SS_690,SS_664,240,79.9,0.0347,624
737,SS_669,SS_760,287,177.1,0.06212,696
738,SS_627,SS_680,315,1.6,0.00032,928
739,SS_22,SS_24,230,29.2,0.01595,558
740,SS_385,SS_846,230,24.5,0.0134,558
741,SS_756,SS_847,350,1065.4,0.25134,4244
742,SS_369,SS_846,230,16.1,0.00877,558
743,SS_846,SS_385,230,24.6,0.01341,558
744,SS_224,SS_846,230,97.7,0.05335,558
745,SS_737,SS_41,735,622.7,0.01153,5729
746,SS_737,SS_134,735,85.4,0.00158,1910
747,SS_738,SS_53,315,0.5,0.00011,928
748,SS_374,VS_1155,230,0.9,0.0005,558
749,VS_1158,SS_368,315,0.8,0.00016,928
750,SS_743,SS_638,315,44.1,0.00888,928
751,SS_258,SS_256,230,146.7,0.08015,558
752,VS_961,SS_256,230,58.4,0.03191,558
753,SS_745,SS_739,240,4,0.00174,624
754,SS_745,SS_739,240,4.1,0.0018,624
755,SS_745,SS_746,240,4.9,0.00212,624
756,SS_746,SS_745,240,4.6,0.00201,624
757,SS_536,SS_746,240,13.2,0.00574,624
758,SS_408,SS_747,240,10.5,0.00454,624
759,SS_607,VS_1009,240,91.4,0.03966,624
760,VS_1160,VS_1161,230,22.3,0.0122,558
761,SS_712,SS_459,230,156.4,0.08544,558
762,VS_941,SS_199,230,3.5,0.00189,558
763,VS_908,VS_920,230,12.5,0.00682,558
764,SS_277,SS_275,315,11,0.00222,928
765,SS_782,SS_189,230,7.4,0.00407,558
766,SS_573,SS_28,230,10.6,0.00579,558
767,SS_117,SS_134,735,259.6,0.00481,1910
768,SS_318,VS_994,138,48.4,0.08256,239
769,SS_754,SS_708,315,409.7,0.08259,1855
770,SS_708,SS_483,735,1.8,3.00E-05,1910
771,SS_483,SS_708,735,1.8,3.00E-05,1910
772,SS_755,SS_756,350,39.2,0.00926,849
773,SS_845,SS_755,350,646.4,0.15251,2546
774,SS_421,VS_1168,230,239,0.13059,558
775,SS_418,SS_361,230,52.7,0.02879,558
776,SS_807,SS_797,200,67.3,0.04862,485
777,SS_759,VS_1169,230,11.3,0.00619,558
778,VS_1048,SS_489,230,2.3,0.00128,558
779,SS_761,SS_760,287,28.4,0.00997,696
780,SS_727,SS_762,230,12.8,0.00701,558
781,SS_763,SS_262,500,133.1,0.00671,1039
782,VS_1089,VS_984,287,9.1,0.00321,696
783,SS_795,VS_1089,287,6.4,0.00225,696
784,SS_795,VS_1038,287,2.2,0.00076,696
785,VS_1038,SS_795,287,2.2,0.00077,696
786,VS_985,VS_1080,287,26,0.00911,696
787,SS_704,SS_793,240,27.8,0.01207,624
788,SS_770,VS_1172,230,15.4,0.00843,558
789,VS_1173,VS_1174,230,11.4,0.00622,558
790,VS_1173,SS_169,230,15,0.00821,558
791,VS_1173,SS_772,230,9,0.00493,558
792,SS_643,SS_773,138,83.8,0.14298,239
793,SS_643,SS_774,138,72,0.12286,239
794,SS_318,SS_317,138,14.2,0.02423,239
795,SS_318,SS_776,138,22.3,0.03811,239
796,SS_318,VS_994,138,48.4,0.08257,239
797,VS_989,SS_318,138,10.4,0.01776,239
798,SS_133,SS_155,735,400.8,0.00742,3819
799,VS_1048,SS_461,230,165.2,0.09027,558
800,VS_1048,SS_491,230,59.7,0.03259,558
801,SS_638,SS_117,315,410.2,0.08267,1855
802,SS_284,SS_149,315,32.1,0.00646,928
803,SS_781,SS_192,315,19.4,0.00392,928
804,SS_781,SS_57,315,20.7,0.00417,928
805,SS_783,SS_248,240,36.7,0.01593,624
806,SS_763,SS_730,230,103.7,0.05666,558
807,SS_763,SS_730,230,104,0.05681,558
808,VS_1150,SS_730,230,1.1,0.00058,558
809,VS_1150,SS_730,230,1.1,0.00058,558
810,SS_730,SS_765,230,78.1,0.04269,558
811,SS_568,SS_788,240,19.2,0.00833,624
812,SS_655,VS_1178,230,3.5,0.0019,558
813,VS_1179,SS_655,230,1,0.00057,558
814,VS_1179,VS_1178,230,5,0.00272,558
815,SS_789,SS_440,230,8.9,0.00487,558
816,SS_440,VS_1180,230,3.5,0.00193,558
817,VS_1181,SS_416,230,5.3,0.00288,558
818,SS_790,SS_819,230,59.6,0.03255,558
819,SS_415,VS_1182,230,52.1,0.02849,558
820,SS_394,VS_913,240,6.9,0.00301,624
821,VS_1183,VS_982,315,11.4,0.00229,928
822,SS_43,SS_255,230,25.1,0.0137,558
823,SS_138,SS_255,115,10.6,0.02406,159
824,VS_1184,SS_506,240,6.4,0.00278,624
825,VS_1052,VS_1184,240,17.3,0.0075,624
826,SS_793,SS_462,240,8.2,0.00354,624
827,VS_928,SS_351,230,2.3,0.00123,558
828,SS_176,VS_1189,230,4.1,0.00226,558
829,SS_176,VS_1189,230,4.4,0.00241,558
830,SS_808,SS_797,200,1,0.00071,485
831,SS_402,SS_810,240,77.8,0.03378,624
832,SS_502,SS_810,240,58.8,0.02553,624
833,VS_1016,VS_1072,240,42.5,0.01847,624
834,VS_1016,SS_529,240,44.7,0.01938,624
835,SS_394,SS_814,240,7.7,0.00334,624
836,SS_814,SS_394,240,7.7,0.00335,624
837,SS_702,VS_1204,345,9.4,0.00228,837
838,VS_1205,SS_215,230,127.8,0.06984,558
839,SS_675,VS_1211,138,26,0.04437,239
840,VS_1211,SS_676,138,15,0.02562,239
841,SS_340,SS_826,138,6.4,0.01097,239
842,SS_826,VS_995,138,1.9,0.00326,239
843,VS_996,SS_805,138,31.4,0.05356,239
844,SS_341,VS_995,138,9.7,0.01652,239
845,VS_937,SS_235,345,7.5,0.00182,837
846,SS_835,SS_448,240,24.1,0.01047,624
847,VS_861,VS_910,230,3.3,0.00182,558
848,SS_86,VS_861,230,1.9,0.00103,558
849,SS_28,VS_862,500,55.2,0.00278,1039
850,SS_501,SS_355,230,2.2,0.00118,558
851,SS_580,SS_360,230,31.6,0.01726,558
852,SS_839,SS_671,230,14.9,0.00816,558
853,SS_800,SS_339,240,45.8,0.01986,624
854,SS_324,VS_1216,230,6.6,0.00363,558
855,SS_500,SS_850,230,71.1,0.03887,558
856,SS_845,SS_754,350,0.9,0.00021,849
857,SS_754,SS_845,350,0.9,0.0002,849
858,SS_418,SS_807,345,0.5,0.00012,837
859,SS_847,SS_846,350,0.7,0.00017,849
860,SS_846,SS_847,350,0.8,0.00018,849
861,SS_348,VS_1223,320,164.1,0.04631,776
862,SS_477,SS_848,315,0.9,0.00018,928
863,SS_849,SS_197,230,2.6,0.00141,558
864,SS_16,VS_1226,500,408.7,0.0206,2078
865,SS_75,VS_969,230,0.8,0.00045,558
866,SS_61,SS_34,230,7.3,0.00399,558
867,SS_61,SS_34,230,7.4,0.00402,558
868,SS_263,SS_143,230,109.5,0.05984,558
869,SS_652,VS_1148,230,1.6,0.00086,558
870,VS_1103,SS_463,230,84.8,0.04635,558
871,VS_1049,VS_1103,230,5.9,0.00322,558
872,VS_937,SS_235,345,7.5,0.00181,837
873,VS_1211,SS_343,138,35.1,0.05995,239
874,SS_342,VS_1227,138,7,0.01186,239
875,SS_806,VS_1228,230,1.1,0.00058,558
876,SS_806,SS_483,230,66.1,0.03613,558
877,SS_806,SS_483,230,65,0.03552,558
878,SS_684,SS_813,200,213.1,0.15393,485
879,SS_812,SS_813,230,0.6,0.00031,558
880,SS_138,VS_1124,115,120.6,0.27352,159
881,SS_138,VS_1124,115,120.6,0.27353,159
882,SS_681,VS_1124,115,143.4,0.32523,159
883,SS_681,SS_377,230,8.2,0.00445,558
884,VS_1229,VS_1230,230,4.8,0.00265,558
885,VS_1229,VS_1136,230,4.7,0.00259,558
886,SS_188,SS_70,230,12.1,0.00661,558
887,SS_591,SS_592,240,84.8,0.03682,624
888,SS_439,SS_363,230,114.3,0.06245,558
889,VS_1231,SS_411,230,5.8,0.00314,558
890,SS_424,SS_152,230,168.7,0.09215,558
891,SS_152,VS_922,230,97.5,0.05327,558
892,SS_377,SS_226,230,12.1,0.00661,558
893,SS_335,SS_111,230,157.6,0.08611,558
894,SS_469,SS_452,230,438.2,0.23941,1115
895,SS_452,SS_123,230,287.2,0.15689,558
896,SS_492,SS_116,230,281.8,0.15395,558
897,SS_393,VS_1097,230,298.1,0.16284,558
898,SS_393,SS_379,230,298.4,0.163,558
899,SS_115,SS_721,230,219,0.11963,558
900,SS_374,SS_572,230,131.5,0.07187,558
901,SS_467,SS_572,230,71.2,0.03891,558
902,SS_467,SS_572,230,71.1,0.03883,558
903,SS_238,SS_73,230,7.9,0.00433,558
904,SS_443,VS_1232,230,126.2,0.06895,558
905,SS_197,SS_48,500,244.7,0.01233,1039
906,SS_109,SS_446,500,60.1,0.00303,1039
907,SS_109,SS_446,500,60.1,0.00303,1039
908,SS_48,SS_291,500,23.9,0.0012,1039
909,SS_48,SS_291,500,23.9,0.0012,1039
910,SS_379,SS_126,500,396.9,0.02,1039
911,SS_379,SS_126,500,397.1,0.02001,1039
912,SS_630,SS_20,500,245.5,0.01237,1039
913,SS_20,SS_630,500,245.6,0.01238,1039
914,SS_20,SS_52,500,247.4,0.01247,1039
915,SS_52,SS_20,500,247.3,0.01246,1039
916,SS_52,SS_587,500,26.1,0.00131,1039
917,SS_9,VS_1233,230,54.4,0.02972,558
918,SS_706,SS_9,230,37.8,0.02064,558
919,VS_1045,SS_467,230,124.3,0.0679,558
920,SS_374,VS_900,230,128,0.06994,558
921,SS_98,VS_1155,230,215.2,0.11755,558
922,VS_1155,SS_98,230,215.2,0.11755,558
923,SS_126,VS_1026,230,58.3,0.03186,558
924,SS_202,SS_102,230,105.3,0.0575,558
925,SS_453,SS_821,230,57.1,0.03121,558
926,VS_998,SS_360,230,75.7,0.04138,558
927,VS_998,VS_1086,230,89,0.04863,558
928,SS_214,VS_1086,230,57.6,0.03147,558
929,VS_1234,VS_952,230,122.4,0.06684,558
930,SS_206,SS_387,230,88.7,0.04847,558
931,VS_1235,SS_387,230,66.3,0.03624,558
932,SS_355,VS_1235,230,24.1,0.01318,558
933,VS_1236,VS_1237,230,67.5,0.03688,558
934,VS_1237,SS_314,230,95.1,0.05197,558
935,SS_387,VS_1238,230,4,0.00216,558
936,SS_387,SS_334,230,126.6,0.06916,558
937,SS_333,VS_1236,230,32.2,0.01757,558
938,VS_1237,SS_387,230,7,0.00385,558
939,SS_362,SS_699,230,41.9,0.02288,558
940,SS_699,VS_1239,230,35.3,0.01927,558
941,VS_1239,VS_1240,230,9,0.00494,558
942,VS_1240,SS_319,230,6.6,0.00361,558
943,VS_1239,SS_823,230,13.9,0.00762,558
944,SS_821,SS_580,230,32.4,0.0177,558
945,VS_1241,SS_96,230,14.6,0.00798,558
946,SS_20,VS_1241,230,31.3,0.01708,558
947,VS_1241,SS_20,230,31.5,0.01723,558
948,SS_97,VS_1241,230,14,0.00764,558
949,SS_122,SS_97,230,36.7,0.02005,558
950,VS_1242,SS_467,230,138.3,0.07556,558
951,SS_378,VS_1242,230,41.5,0.02267,558
952,SS_378,VS_1242,230,40.5,0.02213,558
953,SS_378,SS_379,230,14.5,0.0079,558
954,SS_389,SS_379,230,224.9,0.12287,558
955,SS_11,SS_467,230,57.4,0.03134,558
956,SS_379,SS_378,230,17,0.00927,558
957,SS_77,SS_79,230,8,0.00439,558
958,SS_50,SS_78,230,25.7,0.01403,558
959,SS_50,SS_25,230,11.3,0.00615,558
960,SS_851,SS_25,230,0.8,0.00044,558
961,SS_239,SS_88,230,6.9,0.00379,558
962,VS_1243,SS_447,230,21.5,0.01176,558
963,SS_75,SS_61,230,11.9,0.00649,558
964,SS_61,SS_36,230,6.5,0.00353,558
965,SS_36,VS_969,230,4.4,0.00241,558
966,SS_44,SS_61,230,24.1,0.01317,558
967,SS_754,SS_708,315,409.4,0.08253,1855
968,SS_419,SS_418,345,299.8,0.07279,837
969,SS_375,SS_419,345,77.3,0.01877,837
970,SS_643,SS_375,345,173.3,0.04207,837
971,SS_367,SS_329,735,372.3,0.00689,1910
972,SS_679,SS_305,735,587.4,0.01087,3819
973,SS_679,SS_149,735,47.9,0.00089,1910
974,SS_286,SS_149,315,162.9,0.03283,928
975,SS_286,SS_149,315,163,0.03286,928
976,SS_221,VS_977,765,127.3,0.00629,1855
977,SS_154,SS_165,735,159.2,0.00295,1910
978,SS_154,SS_165,735,159.4,0.00295,1910
979,SS_154,SS_840,735,113.6,0.0021,1910
980,SS_348,SS_3,735,148.9,0.00276,1910
981,SS_165,SS_3,735,106.1,0.00196,1910
982,SS_481,SS_3,735,101.1,0.00187,1910
983,SS_45,SS_481,735,101.1,0.00187,1910
984,VS_909,SS_781,735,27.6,0.00051,1910
985,VS_909,VS_918,735,85.4,0.00158,1910
986,SS_154,SS_134,735,567.8,0.01051,3819
987,SS_330,SS_325,735,410.1,0.00759,3819
988,SS_330,SS_325,735,410.2,0.00759,3819
989,SS_330,SS_325,735,434.1,0.00803,3819
990,SS_740,SS_55,315,21.3,0.0043,928
991,SS_740,SS_45,315,10.5,0.00212,928
992,SS_41,SS_338,315,567.1,0.1143,1855
993,SS_41,SS_338,315,567.5,0.1144,1855
994,SS_162,SS_165,230,65.6,0.03585,558
995,SS_20,SS_118,230,22.7,0.0124,558
996,SS_702,SS_590,345,68.6,0.01666,837
997,SS_657,SS_702,345,69.7,0.01692,837
998,SS_657,SS_685,345,280.6,0.06813,837
999,SS_375,SS_428,345,149.9,0.03641,837
1000,VS_1244,SS_204,345,327.7,0.07956,837
1001,VS_1245,SS_120,345,230.3,0.05592,837
1002,SS_590,VS_1246,230,12.1,0.00663,558
1003,SS_121,SS_685,230,211.4,0.11548,558
1004,VS_945,VS_944,230,122.2,0.06674,558
1005,SS_208,SS_375,230,104.3,0.05697,558
1006,SS_208,SS_375,230,104.1,0.05689,558
1007,SS_208,SS_375,230,106.5,0.05818,558
1008,SS_375,SS_427,230,227.1,0.12409,558
1009,VS_1023,SS_427,230,144.5,0.07897,558
1010,VS_1023,VS_1247,230,140,0.07647,558
1011,VS_1022,VS_1248,230,28.5,0.01558,558
1012,SS_369,SS_195,230,54.6,0.02981,558
1013,SS_369,SS_846,230,16,0.00873,558
1014,SS_423,SS_224,230,66.4,0.03627,558
1015,SS_430,SS_375,230,42.2,0.02308,558
1016,SS_430,VS_1022,230,39.6,0.02165,558
1017,SS_808,SS_684,200,244.4,0.17657,485
1018,VS_1227,SS_343,138,30.1,0.05145,239
1019,VS_1227,SS_825,138,14.3,0.02449,239
1020,VS_996,SS_342,138,40.1,0.06839,239
1021,SS_776,SS_775,138,123.8,0.21122,239
1022,SS_773,SS_4,138,23.1,0.03947,239
1023,SS_774,SS_317,138,32,0.05461,239
1024,VS_1249,SS_812,230,31.7,0.01733,558
1025,SS_856,SS_828,230,387.5,0.21171,558
1026,SS_426,SS_425,230,84,0.04592,558
1027,SS_686,SS_423,230,210.8,0.11517,558
1028,SS_4,VS_989,138,1.8,0.0031,239
1029,SS_137,SS_671,500,346.4,0.01746,1039
1030,SS_287,SS_671,500,248.3,0.01251,1039
1031,SS_8,SS_560,500,557.9,0.02812,2078
1032,SS_560,SS_14,500,721.2,0.03635,3118
1033,SS_372,SS_400,500,112.4,0.00567,1039
1034,SS_504,SS_372,500,109.3,0.00551,1039
1035,SS_641,SS_507,500,796.3,0.04013,3118
1036,SS_377,SS_648,500,2319.2,0.11689,11432
1037,SS_377,VS_1250,500,271.7,0.01369,1039
1038,SS_560,SS_400,500,1.8,9.00E-05,1039
1039,SS_568,SS_820,240,110.3,0.04789,624
1040,SS_567,VS_1024,240,197.8,0.08584,624
1041,VS_1053,SS_641,240,2.8,0.00121,624
1042,SS_434,VS_1053,240,82.9,0.03598,624
1043,SS_432,SS_438,240,57.2,0.02482,624
1044,SS_438,SS_448,240,114.5,0.0497,624
1045,VS_1091,SS_604,240,14.3,0.0062,624
1046,VS_1091,SS_410,240,8.2,0.00355,624
1047,SS_408,SS_409,240,48.3,0.02098,624
1048,SS_747,SS_816,240,84.1,0.03648,624
1049,SS_816,SS_407,240,23.3,0.01013,624
1050,SS_407,SS_434,240,124.5,0.05403,624
1051,SS_403,SS_8,240,28.6,0.01241,624
1052,SS_403,SS_526,240,6.4,0.00277,624
1053,SS_592,SS_404,240,71.3,0.03093,624
1054,SS_404,SS_526,240,12.5,0.00543,624
1055,SS_211,SS_637,240,18.6,0.00807,624
1056,SS_530,VS_1009,240,37.6,0.0163,624
1057,SS_67,SS_64,240,29.4,0.01274,624
1058,VS_1251,SS_372,240,20.5,0.00888,624
1059,SS_66,VS_1251,240,3.9,0.00171,624
1060,VS_1251,SS_65,240,3.1,0.00136,624
1061,SS_65,SS_64,240,5.8,0.0025,624
1062,SS_510,SS_64,240,9.8,0.00426,624
1063,VS_950,SS_510,240,7.7,0.00334,624
1064,SS_495,VS_950,240,32.3,0.01402,624
1065,SS_511,VS_1184,240,6,0.00259,624
1066,SS_234,VS_913,240,1,0.00045,624
1067,SS_700,SS_532,240,62.9,0.02729,624
1068,VS_1064,SS_513,240,26.3,0.01141,624
1069,SS_746,SS_617,240,60.7,0.02636,624
1070,SS_617,SS_614,240,62.3,0.02705,624
1071,SS_539,SS_532,240,14.6,0.00633,624
1072,SS_532,VS_1252,240,6.8,0.00297,624
1073,SS_347,VS_1067,240,2.7,0.00116,624
1074,SS_612,SS_543,240,133.5,0.05794,624
1075,SS_700,SS_612,240,104.1,0.04517,624
1076,SS_529,VS_1253,240,105.5,0.04581,624
1077,VS_1253,VS_913,240,19.6,0.00851,624
1078,SS_220,SS_528,240,3.9,0.0017,624
1079,VS_1253,SS_528,240,16.5,0.00718,624
1080,SS_747,SS_591,240,107.3,0.04659,624
1081,SS_440,VS_1037,230,215.5,0.11772,558
1082,VS_1037,SS_435,230,46.1,0.02516,558
1083,VS_1254,SS_440,230,65.4,0.03575,558
1084,SS_440,SS_441,230,66.7,0.03642,558
1085,SS_439,SS_441,230,196.3,0.10726,558
1086,SS_363,SS_415,230,271.5,0.14834,558
1087,SS_174,VS_1255,230,168.3,0.09195,558
1088,SS_157,SS_184,230,122.5,0.06693,558
1089,VS_1255,SS_157,230,9.4,0.00512,558
1090,SS_268,VS_1231,230,18.1,0.00988,558
1091,SS_458,VS_1231,230,179.7,0.09819,558
1092,SS_16,SS_227,500,1506.4,0.07592,7275
1093,SS_664,SS_225,230,8,0.00436,558
1094,SS_664,SS_663,230,173.5,0.09479,558
1095,SS_665,SS_662,230,90.6,0.04951,558
1096,SS_662,SS_15,230,238.1,0.1301,558
1097,SS_111,SS_15,230,412.1,0.22512,1115
1098,SS_336,SS_267,230,88.9,0.04857,558
1099,SS_111,SS_674,230,205.9,0.11249,558
1100,SS_315,SS_111,230,212.6,0.11613,558
1101,SS_674,VS_903,230,283.7,0.15498,558
1102,SS_674,VS_903,230,283.6,0.15492,558
1103,SS_752,SS_152,230,193,0.10544,558
1104,SS_16,SS_43,230,30.4,0.01663,558
1105,SS_16,SS_43,230,30.3,0.01654,558
1106,VS_903,SS_16,230,31,0.01693,558
1107,SS_662,SS_315,230,240.5,0.13137,558
1108,SS_726,SS_10,230,92.5,0.05055,558
1109,SS_727,SS_726,230,90.9,0.04967,558
1110,SS_693,SS_183,230,56.6,0.0309,558
1111,VS_979,SS_671,230,69.1,0.03776,558
1112,SS_251,VS_979,230,1.2,0.00066,558
1113,VS_1229,VS_1136,230,4.7,0.00259,558
1114,VS_1230,SS_671,230,6.1,0.00335,558
1115,VS_1230,SS_671,230,6.2,0.00341,558
1116,SS_671,SS_159,230,24.6,0.01344,558
1117,VS_1256,SS_496,230,41.1,0.02243,558
1118,SS_159,VS_1256,230,5.9,0.00322,558
1119,SS_159,SS_264,230,247.2,0.13507,558
1120,SS_264,SS_605,230,119.1,0.06505,558
1121,SS_720,SS_274,230,65.7,0.03591,558
1122,SS_290,VS_1093,230,3.8,0.00206,558
1123,SS_782,SS_37,230,12.2,0.00669,558
1124,SS_37,SS_191,230,9.6,0.00525,558
1125,SS_188,SS_191,230,18.8,0.01025,558
1126,SS_189,SS_188,230,6,0.00326,558
1127,SS_71,SS_70,230,8.1,0.00441,558
1128,SS_71,SS_782,230,22.1,0.01205,558
1129,SS_32,SS_37,230,34.8,0.01903,558
1130,SS_42,VS_963,230,10.1,0.00553,558
1131,SS_30,SS_326,230,18.8,0.0103,558
1132,VS_962,SS_209,230,2.4,0.00133,558
1133,SS_30,SS_28,230,25.6,0.01399,558
1134,SS_28,VS_1257,230,16.5,0.00901,558
1135,SS_320,SS_63,230,7.5,0.00409,558
1136,SS_320,VS_1257,230,11.3,0.00615,558
1137,VS_962,VS_1257,230,15.8,0.00864,558
1138,SS_820,SS_567,240,62.6,0.02716,624
1139,SS_500,SS_790,230,158.5,0.08657,558
1140,SS_415,SS_412,230,362.6,0.19812,558
1141,VS_1025,SS_414,230,32.5,0.01773,558
1142,SS_268,SS_414,230,285.5,0.15597,558
1143,SS_363,SS_416,230,248.3,0.13567,558
1144,VS_1181,SS_416,230,6.1,0.00335,558
1145,VS_1179,VS_1181,230,144.4,0.07891,558
1146,SS_268,SS_459,230,184.2,0.10066,558
1147,VS_1258,VS_1160,230,11,0.00599,558
1148,VS_1160,VS_1178,230,29.4,0.01607,558
1149,SS_227,SS_231,500,75.1,0.00378,1039
1150,SS_570,SS_231,230,46.4,0.02535,558
1151,SS_227,SS_16,500,1506.3,0.07592,7275
1152,VS_947,SS_225,230,59,0.03222,558
1153,SS_476,VS_947,230,207.2,0.11319,558
1154,SS_315,SS_111,230,267.2,0.14597,558
1155,SS_136,SS_157,230,153.9,0.08405,558
1156,SS_255,SS_377,230,18.4,0.01005,558
1157,SS_334,SS_109,500,156.5,0.00789,1039
1158,SS_316,SS_314,500,26.1,0.00131,1039
1159,SS_501,SS_355,230,2.2,0.00118,558
1160,SS_333,VS_1235,230,35.4,0.01934,558
1161,SS_265,VS_999,230,16.2,0.00887,558
1162,SS_265,SS_214,230,131.8,0.07198,558
1163,VS_999,VS_968,230,72.8,0.03979,558
1164,VS_1243,VS_954,230,24.9,0.01361,558
1165,SS_447,SS_114,230,7.4,0.00404,558
1166,SS_35,SS_44,230,9.1,0.00499,558
1167,SS_44,SS_60,230,10,0.00544,558
1168,SS_60,SS_44,230,10.2,0.00555,558
1169,SS_60,SS_44,230,11.2,0.0061,558
1170,SS_35,SS_44,230,9.8,0.00533,558
1171,SS_587,SS_44,500,36.7,0.00185,1039
1172,SS_210,SS_44,500,64.6,0.00325,1039
1173,SS_210,SS_44,500,64.9,0.00327,1039
1174,SS_52,SS_44,500,63.9,0.00322,1039
1175,VS_1029,SS_119,230,25.8,0.01411,558
1176,VS_1259,SS_751,230,17.1,0.00934,558
1177,VS_1259,SS_392,230,10.7,0.00582,558
1178,SS_125,SS_632,230,16,0.00876,558
1179,VS_1142,SS_147,230,66.4,0.03629,558
1180,SS_303,SS_480,315,224.1,0.04517,928
1181,SS_303,SS_480,315,224.1,0.04518,928
1182,VS_1096,VS_926,315,182.1,0.03671,928
1183,SS_41,VS_926,315,1.8,0.00036,928
1184,SS_328,SS_185,315,134.4,0.0271,928
1185,SS_41,SS_328,315,56.7,0.01142,928
1186,SS_154,SS_158,315,270.7,0.05456,928
1187,SS_154,SS_158,315,270.5,0.05452,928
1188,SS_139,SS_286,315,41.6,0.00838,928
1189,SS_95,SS_273,450,1470.9,0.20992,7638
1190,SS_95,SS_359,315,25.3,0.00511,928
1191,SS_359,SS_95,315,25.6,0.00517,928
1192,VS_1260,SS_131,315,8.8,0.00176,928
1193,SS_185,SS_386,315,333.4,0.0672,928
1194,VS_864,SS_181,315,14.9,0.003,928
1195,VS_864,SS_564,315,5.6,0.00114,928
1196,SS_169,VS_921,315,105.6,0.02129,928
1197,SS_169,VS_982,315,116.8,0.02354,928
1198,VS_1183,SS_368,315,19.3,0.00389,928
1199,SS_41,VS_1183,315,34.4,0.00694,928
1200,SS_46,SS_45,315,21.7,0.00437,928
1201,SS_46,SS_53,315,5.3,0.00106,928
1202,SS_55,SS_53,315,10.1,0.00203,928
1203,SS_192,SS_275,315,33.4,0.00674,928
1204,SS_275,SS_192,315,33.3,0.00672,928
1205,SS_57,VS_894,315,11.4,0.0023,928
1206,SS_58,VS_894,315,9.6,0.00193,928
1207,SS_90,VS_894,315,3.5,0.0007,928
1208,VS_1261,SS_133,315,168.3,0.03392,928
1209,SS_133,VS_1262,315,169,0.03407,928
1210,SS_625,SS_133,315,86.1,0.01736,928
1211,SS_386,SS_131,315,111.5,0.02248,928
1212,VS_925,SS_176,315,4.1,0.00082,928
1213,SS_68,VS_972,315,15.8,0.00318,928
1214,VS_972,SS_781,315,6.6,0.00133,928
1215,VS_1263,SS_680,315,9.1,0.00184,928
1216,SS_192,VS_1263,315,20.4,0.0041,928
1217,VS_1263,SS_599,315,44.9,0.00905,928
1218,SS_599,VS_1264,315,111,0.02238,928
1219,VS_1264,SS_169,315,12.4,0.0025,928
1220,SS_599,VS_1264,315,108,0.02177,928
1221,SS_148,SS_221,315,27.3,0.00549,928
1222,SS_192,SS_58,315,23.3,0.00469,928
1223,SS_325,VS_938,735,297.4,0.0055,1910
1224,VS_918,VS_938,735,42.8,0.00079,1910
1225,SS_165,SS_160,230,47.9,0.02616,558
1226,SS_165,SS_171,230,59.6,0.03255,558
1227,SS_57,VS_898,230,31.1,0.01698,558
1228,VS_898,SS_697,230,29.3,0.01603,558
1229,VS_895,SS_697,230,55,0.03004,558
1230,VS_895,VS_941,230,42.6,0.02329,558
1231,SS_135,SS_201,230,64.8,0.03542,558
1232,SS_201,SS_7,230,11.9,0.00649,558
1233,SS_104,VS_902,230,26.6,0.01453,558
1234,SS_104,VS_902,220,26.7,0.01594,533
1235,VS_1265,SS_3,230,6.5,0.00356,558
1236,VS_1265,SS_3,230,6.3,0.00347,558
1237,SS_161,SS_160,230,8.8,0.00481,558
1238,VS_1266,SS_170,230,8.1,0.00444,558
1239,VS_1267,VS_1266,230,19.1,0.01041,558
1240,VS_1268,VS_1267,230,20.6,0.01124,558
1241,VS_1268,SS_769,230,1.7,0.00093,558
1242,VS_1268,SS_771,230,8.4,0.0046,558
1243,VS_1173,SS_770,230,39.9,0.0218,558
1244,SS_772,VS_1173,230,9,0.00494,558
1245,VS_1173,SS_351,230,157.8,0.08618,558
1246,VS_928,VS_931,230,9.4,0.00512,558
1247,VS_931,VS_928,230,9.6,0.00527,558
1248,VS_933,VS_931,230,43.6,0.0238,558
1249,VS_1269,VS_933,230,9.1,0.00497,558
1250,VS_928,SS_769,230,189.7,0.10364,558
1251,SS_769,SS_112,230,7,0.00382,558
1252,VS_928,SS_769,230,189.6,0.1036,558
1253,VS_931,VS_1173,230,163.6,0.08935,558
1254,SS_348,SS_166,230,12.3,0.0067,558
1255,VS_916,SS_167,230,62.6,0.0342,558
1256,SS_154,SS_167,230,93,0.05081,558
1257,SS_635,SS_180,230,44.7,0.02442,558
1258,SS_635,SS_180,230,45.2,0.02471,558
1259,SS_175,VS_920,230,7.3,0.00396,558
1260,VS_908,SS_635,230,44.6,0.02438,558
1261,SS_457,VS_927,230,2.2,0.00119,558
1262,SS_246,SS_457,230,311,0.16992,558
1263,SS_171,VS_1266,230,2,0.00109,558
1264,VS_1267,SS_165,230,44.4,0.02423,558
1265,SS_777,SS_306,230,31.5,0.01721,558
1266,SS_657,SS_778,230,83.5,0.0456,558
1267,VS_1270,SS_657,230,5.3,0.00291,558
1268,SS_590,SS_657,230,131.4,0.07181,558
1269,VS_955,VS_1169,230,61.8,0.03376,558
1270,VS_1169,SS_242,230,47.2,0.02577,558
1271,VS_956,SS_243,230,90.7,0.04955,558
1272,SS_247,SS_178,230,14.8,0.00811,558
1273,SS_178,SS_247,230,15,0.00822,558
1274,SS_247,VS_919,230,3.6,0.00194,558
1275,SS_41,VS_927,230,3.7,0.002,558
1276,VS_1189,SS_2,230,3.3,0.00183,558
1277,SS_178,SS_176,230,10.9,0.00596,558
1278,SS_41,SS_176,230,10.4,0.00568,558
1279,SS_158,SS_682,230,64.9,0.03544,558
1280,SS_158,SS_682,230,64.8,0.0354,558
1281,VS_907,SS_489,230,66.9,0.03657,558
1282,SS_153,VS_907,230,6.8,0.00371,558
1283,SS_151,VS_1048,230,84.4,0.0461,558
1284,VS_1055,SS_469,230,140.9,0.07697,558
1285,VS_1055,SS_520,230,96.1,0.05251,558
1286,SS_116,SS_115,230,252,0.13766,558
1287,VS_1233,VS_1039,230,4.2,0.00229,558
1288,VS_1233,SS_388,230,3.6,0.00199,558
1289,SS_390,SS_503,230,125.7,0.0687,558
1290,SS_266,SS_670,230,24.3,0.01327,558
1291,VS_900,SS_98,230,87.9,0.04803,558
1292,VS_948,SS_98,230,72.3,0.03949,558
1293,SS_197,SS_523,230,154.3,0.08431,558
1294,VS_878,SS_73,230,46.7,0.02549,558
1295,SS_73,SS_240,230,11.4,0.00625,558
1296,SS_240,VS_1243,230,33.9,0.01854,558
1297,SS_749,VS_1142,230,7.6,0.00414,558
1298,SS_443,VS_890,230,11.1,0.00609,558
1299,VS_1232,SS_122,230,100.4,0.05483,558
1300,VS_1029,SS_122,230,93.3,0.05098,558
1301,SS_261,SS_269,230,21.6,0.01178,558
1302,SS_446,VS_1271,230,66.5,0.03635,558
1303,VS_886,SS_446,230,9.2,0.005,558
1304,SS_107,VS_885,230,48.2,0.02633,558
1305,VS_1259,SS_630,230,7,0.00383,558
1306,VS_889,SS_744,230,41.7,0.0228,558
1307,VS_1272,VS_889,230,3.6,0.00198,558
1308,VS_1272,SS_186,230,68.3,0.03734,558
1309,VS_889,SS_289,230,13.8,0.00754,558
1310,VS_888,VS_889,230,374.3,0.2045,558
1311,VS_891,VS_1272,230,374.8,0.20479,558
1312,VS_1232,SS_356,230,33.5,0.01831,558
1313,VS_1232,SS_124,230,22,0.01204,558
1314,SS_443,VS_1232,230,131.7,0.07194,558
1315,SS_97,VS_1241,230,14,0.00764,558
1316,VS_865,SS_44,230,3.5,0.0019,558
1317,VS_970,SS_44,230,5.1,0.00277,558
1318,SS_44,VS_867,230,2.5,0.00135,558
1319,VS_868,SS_44,230,5.7,0.00311,558
1320,VS_867,SS_44,230,2.4,0.00134,558
1321,VS_967,SS_673,230,2.3,0.00125,558
1322,VS_967,VS_1273,230,4.6,0.00252,558
1323,VS_967,VS_1273,230,4.6,0.00252,558
1324,SS_265,SS_269,230,96,0.05244,558
1325,SS_265,SS_86,230,45.8,0.02503,558
1326,VS_1274,SS_239,230,25.1,0.01369,558
1327,SS_261,VS_1274,230,102.8,0.05615,558
1328,VS_954,SS_261,230,117.3,0.06409,558
1329,SS_265,VS_1274,230,20.3,0.01107,558
1330,SS_44,SS_60,230,10.1,0.00551,558
1331,VS_1255,SS_16,230,32.3,0.01765,558
1332,SS_157,SS_16,230,41.6,0.02275,558
1333,SS_197,SS_444,500,6.3,0.00032,1039
1334,SS_197,SS_371,230,96.3,0.0526,558
1335,SS_197,SS_202,230,67.1,0.03668,558
1336,SS_197,SS_48,500,244.5,0.01232,1039
1337,SS_579,SS_197,500,85.4,0.0043,1039
1338,SS_529,SS_339,240,35.3,0.01532,624
1339,SS_399,SS_704,240,78.2,0.03393,624
1340,SS_399,SS_405,240,230.8,0.10018,624
1341,SS_552,SS_498,240,124.3,0.05394,624
1342,VS_870,SS_271,230,6.2,0.00336,558
1343,VS_870,SS_47,230,4.9,0.0027,558
1344,SS_232,VS_1026,230,99.2,0.05417,558
1345,VS_968,SS_214,230,42.2,0.02307,558
1346,VS_1273,SS_269,230,1,0.00056,558
1347,VS_1273,SS_269,230,1,0.00056,558
1348,VS_873,SS_78,230,12.5,0.00681,558
1349,SS_364,SS_353,230,0.8,0.00042,558
1350,SS_691,SS_206,230,4.8,0.00261,558
1351,SS_523,SS_203,230,49.2,0.02686,558
1352,VS_1271,VS_1273,230,37.6,0.02055,558
1353,SS_103,VS_1271,230,27.6,0.01507,558
1354,SS_17,SS_330,315,232.2,0.04681,928
1355,SS_74,VS_877,230,25.8,0.01411,558
1356,VS_877,SS_102,230,51.2,0.02796,558
1357,VS_865,SS_587,230,36.9,0.02017,558
1358,SS_44,VS_1275,230,24.3,0.01327,558
1359,VS_1276,SS_587,230,4.7,0.00257,558
1360,VS_1275,VS_1276,230,8.4,0.00457,558
1361,VS_1275,SS_100,230,14,0.00763,558
1362,SS_100,SS_1,230,3.5,0.00189,558
1363,VS_1276,SS_101,230,8.5,0.00465,558
1364,SS_769,SS_768,230,10.5,0.00574,558
1365,VS_1082,VS_1269,230,46.6,0.02547,558
1366,VS_939,SS_7,735,139.4,0.00258,1910
1367,SS_593,VS_939,735,10.4,0.00019,1910
1368,SS_117,SS_133,735,279.2,0.00517,1910
1369,SS_274,SS_331,230,24.1,0.01317,558
1370,SS_618,SS_623,240,39.3,0.01708,624
1371,SS_792,SS_67,240,26.8,0.01164,624
1372,SS_502,SS_792,240,54,0.02343,624
1373,VS_1015,SS_402,240,11.8,0.00513,624
1374,VS_1024,SS_641,240,4.3,0.00189,624
1375,VS_1002,SS_16,230,17.5,0.00955,558
1376,SS_157,SS_230,230,13.2,0.00724,558
1377,VS_1042,VS_1147,230,23.8,0.01302,558
1378,SS_115,SS_522,230,139.4,0.07616,558
1379,SS_398,SS_376,230,100,0.05462,558
1380,SS_309,SS_735,230,52.3,0.02855,558
1381,VS_1232,SS_122,230,100.9,0.05511,558
1382,SS_548,SS_826,138,4.7,0.00806,239
1383,SS_140,SS_125,230,5.9,0.00321,558
1384,SS_140,SS_125,230,5.9,0.00324,558
1385,SS_231,VS_1277,230,4.1,0.00222,558
1386,SS_231,VS_1277,230,3.8,0.00209,558
1387,SS_231,VS_1277,230,3.6,0.00198,558
1388,SS_231,VS_1277,230,3.4,0.00186,558
1389,SS_231,VS_1277,230,3.2,0.00176,558
1390,SS_663,SS_228,230,232.1,0.12679,558
1391,SS_231,SS_648,230,49.4,0.027,558
1392,SS_231,SS_648,230,50.1,0.02735,558
1393,SS_231,SS_642,230,0.9,0.0005,558
1394,SS_85,SS_735,230,46.4,0.02534,558
1395,SS_210,SS_257,230,38,0.02077,558
1396,SS_210,SS_78,230,12.8,0.007,558
1397,SS_85,SS_210,230,2.3,0.00127,558
1398,SS_85,SS_210,230,1.5,0.00083,558
1399,SS_48,SS_49,500,18.4,0.00093,1039
1400,SS_821,SS_822,230,1.4,0.00076,558
1401,SS_821,SS_580,230,32.4,0.01771,558
1402,VS_1278,SS_207,230,6.5,0.00355,558
1403,SS_207,SS_206,230,27.9,0.01522,558
1404,VS_998,SS_206,230,24.1,0.01315,558
1405,SS_206,VS_1234,230,2.7,0.0015,558
1406,VS_1234,SS_692,230,3,0.00161,558
1407,VS_1240,SS_214,230,55.1,0.03008,558
1408,SS_110,SS_106,230,1.1,0.0006,558
1409,SS_107,VS_885,230,48.1,0.0263,558
1410,SS_105,VS_884,230,4,0.00219,558
1411,SS_257,SS_84,230,5.7,0.0031,558
1412,SS_257,VS_868,230,21,0.01146,558
1413,VS_890,SS_217,230,111.7,0.06103,558
1414,SS_147,SS_217,230,111.7,0.06101,558
1415,SS_345,SS_469,230,200.9,0.10974,558
1416,SS_345,SS_469,230,201,0.10981,558
1417,SS_520,SS_452,230,210.2,0.11483,558
1418,SS_123,SS_492,230,68.7,0.03753,558
1419,SS_393,SS_721,230,82.5,0.04509,558
1420,SS_397,SS_376,230,32.4,0.01771,558
1421,SS_388,SS_600,230,274.1,0.14973,558
1422,SS_353,SS_501,230,4.9,0.00268,558
1423,SS_355,VS_1236,230,24.9,0.01362,558
1424,SS_821,SS_787,230,17.1,0.00933,558
1425,SS_360,SS_578,230,28.5,0.01555,558
1426,SS_578,SS_314,230,59.5,0.03249,558
1427,SS_314,SS_214,230,43.6,0.02381,558
1428,SS_316,SS_595,500,51.3,0.00258,1039
1429,SS_579,SS_595,500,124.3,0.00627,1039
1430,SS_270,SS_588,230,15.6,0.0085,558
1431,SS_34,VS_874,230,2.1,0.00113,558
1432,VS_874,SS_35,230,5.3,0.00291,558
